*HEADING
Wing shell from CFD pressure
*NODE
1,0.0705259964,-0.000146785998,-0.362361014
2,0.0705344975,-0.000321711996,0.362361014
3,0.0751926005,0.000103703002,-0.341966987
4,0.075202398,-8.3005099e-05,0.341966987
5,0.0753670037,0.000113064998,-0.3125
6,0.0753670037,0.000113064998,-0.28125
7,0.0753670037,0.000113064998,-0.25
8,0.0753670037,0.000113064998,-0.21875
9,0.0753727034,1.09622e-05,-4.8855e-07
10,0.0753768012,-7.4084201e-05,-0.1875
11,0.0753768012,-7.4084201e-05,-0.15625
12,0.0753768012,-7.4084201e-05,-0.125
13,0.0753768012,-7.4084201e-05,-0.09375
14,0.0753768012,-7.4084201e-05,-0.0625
15,0.0753768012,-7.4084201e-05,-0.03125
16,0.0753768012,-7.4084201e-05,0.03125
17,0.0753768012,-7.4084201e-05,0.0625
18,0.0753768012,-7.4084201e-05,0.09375
19,0.0753768012,-7.4084201e-05,0.125
20,0.0753768012,-7.4084201e-05,0.15625
** ... 174 like lines cut
*ELEMENT, TYPE=S3, ELSET=ALL_SHELL
1,174,166,168
2,168,193,174
3,147,176,177
4,177,148,147
5,151,180,181
6,181,152,151
7,155,184,185
8,185,156,155
9,159,188,189
10,189,160,159
11,171,164,163
12,163,192,171
13,143,168,97
14,97,95,143
15,124,123,75
16,75,76,124
17,124,76,77
18,77,125,124
19,128,127,79
20,79,80,128
** ... 364 like lines cut
*MATERIAL, NAME=CFRP
*ELASTIC
7e+10,0.3
*DENSITY
1600
*SHELL SECTION, ELSET=ALL_SHELL, MATERIAL=CFRP
0.0025
*NSET, NSET=MOUNT
1,2
*STEP
*STATIC
*NODE PRINT, NSET=ALL
U
*EL PRINT, ELSET=ALL_SHELL
S
*NODE FILE
U
*EL FILE, ELSET=ALL_SHELL
S
*DLOAD
1,P,397.463013
2,P,397.463013
3,P,1050.39001
4,P,1050.39001
5,P,1111.29004
6,P,1111.29004
7,P,1120.48999
8,P,1120.48999
9,P,1104.32996
10,P,1104.32996
11,P,997.630005
12,P,997.630005
13,P,297.34201
14,P,297.34201
15,P,729.705994
16,P,729.705994
17,P,757.40802
18,P,757.40802
19,P,787.377991
20,P,787.377991
** ... 364 like lines cut
*BOUNDARY
MOUNT, 1, 6
*END STEP
