*HEADING
Wing shell from CFD pressure
*NODE
1,0.00354310009,-0.0152596999,-0.395978987
2,0.00354310009,-0.0152596999,0.395978987
3,0.00361588993,-0.0148488004,-0.390341014
4,0.00361588993,-0.0148488004,0.390341014
5,0.00363603002,-0.0147622004,-0.382813007
6,0.00363603002,-0.0147622004,-0.375
7,0.00363603002,-0.0147622004,-0.367188007
8,0.00363603002,-0.0147622004,-0.359375
9,0.00363603002,-0.0147622004,-0.351561993
10,0.00363603002,-0.0147622004,-0.34375
11,0.00363603002,-0.0147622004,-0.335938007
12,0.00363603002,-0.0147622004,-0.328125
13,0.00363603002,-0.0147622004,-0.320311993
14,0.00363603002,-0.0147622004,-0.3125
15,0.00363603002,-0.0147622004,-0.304688007
16,0.00363603002,-0.0147622004,-0.296875
17,0.00363603002,-0.0147622004,-0.289063007
18,0.00363603002,-0.0147622004,-0.28125
19,0.00363603002,-0.0147622004,-0.273438007
20,0.00363603002,-0.0147622004,-0.265625
** ... 6631 like lines cut
*ELEMENT, TYPE=S3, ELSET=ALL_SHELL
1,832,937,1042
2,1042,624,832
3,833,1041,623
4,623,625,833
5,831,623,1041
6,1041,936,831
7,3353,3250,3384
8,3384,3374,3353
9,2727,2935,2517
10,2517,2620,2727
11,834,626,624
12,624,1042,834
13,3354,3375,3389
14,3389,3251,3354
15,2728,2621,2518
16,2518,2936,2728
17,937,1044,1248
18,1248,1042,937
19,1881,1677,1465
20,1465,1671,1881
** ... 13278 like lines cut
*MATERIAL, NAME=CFRP
*ELASTIC
7e+10,0.3
*DENSITY
1600
*SHELL SECTION, ELSET=ALL_SHELL, MATERIAL=CFRP
0.0025
*NSET, NSET=ALLNODES, GENERATE
1,6651,1
*NSET, NSET=MOUNT
1,2,3,4,5,6,7,8,9,10,11,12,13,14,15,16
17,18,19,20,21,22,23,24,25,26,27,28,29,30,31,32
33,34,35,36,37,38,39,40,41,42,43,44,45,46,47,48
49,50,51,52,53,54,55,56,57,58,59,60,61,62,63,64
65,66,67,68,69,70,71,72,73,74,75,76,77,78,79,80
81,82,83,84,85,86,87,88,89,90,91,92,93,94,95,96
97,98,99,100,101,102,103,104,105,106,107,108,109,110,111,112
113,114,115,116,117,118,119,120,121,122,123,124,125,126,127,128
129,130,131,132,133,134,135,136,137,138,139,140,141,142,143,144
145,146,147,148,149,150,151,152,153,154,155,156,157,158,159,160
161,162,163,164,165,166,167,168,169,170,171,172,173,174,175,176
177,178,179,180,181,182,183,184,185,186,187,188,189,190,191,192
193,194,195,196,197,198,199,200,201,202,203,204,205,206
*STEP
*STATIC
*NODE PRINT, NSET=ALLNODES
U
*EL PRINT, ELSET=ALL_SHELL
S
*NODE FILE, NSET=ALLNODES
U
*EL FILE, ELSET=ALL_SHELL
S
*DLOAD
1,P,2081.33325
2,P,2081.33325
3,P,2049.82153
4,P,2049.82153
5,P,2003.84961
6,P,2003.84961
7,P,765.32074
8,P,765.32074
9,P,686.107971
10,P,686.107971
11,P,2049.47852
12,P,2049.47852
13,P,918.106934
14,P,918.106934
15,P,691.614563
16,P,691.614563
17,P,1845.77441
18,P,1845.77441
19,P,469.646942
20,P,469.646942
** ... 13278 like lines cut
*BOUNDARY
MOUNT, 1, 6
*END STEP
