*HEADING
Wing shell from CFD pressure
*NODE
1,0.070525996,-0.000146786,-0.362361014
2,0.070534497,-0.000321712,0.362361014
3,0.0751926,0.000103703,-0.341966987
4,0.075202398,-8.3005e-05,0.341966987
5,0.075367004,0.000113065,-0.3125
6,0.075367004,0.000113065,-0.28125
7,0.075367004,0.000113065,-0.25
8,0.075367004,0.000113065,-0.21875
9,0.075372703,1.0962e-05,-4.89e-07
10,0.075376801,-7.4084e-05,-0.1875
11,0.075376801,-7.4084e-05,-0.15625
12,0.075376801,-7.4084e-05,-0.125
13,0.075376801,-7.4084e-05,-0.09375
14,0.075376801,-7.4084e-05,-0.0625
15,0.075376801,-7.4084e-05,-0.03125
16,0.075376801,-7.4084e-05,0.03125
17,0.075376801,-7.4084e-05,0.0625
18,0.075376801,-7.4084e-05,0.09375
19,0.075376801,-7.4084e-05,0.125
20,0.075376801,-7.4084e-05,0.15625
** ... 174 like lines cut
*ELEMENT, TYPE=S3, ELSET=ALL_SHELL
1,174,166,168
2,168,193,174
3,147,176,177
4,177,148,147
5,151,180,181
6,181,152,151
7,155,184,185
8,185,156,155
9,159,188,189
10,189,160,159
11,171,164,163
12,163,192,171
13,143,168,97
14,97,95,143
15,124,123,75
16,75,76,124
17,124,76,77
18,77,125,124
19,128,127,79
20,79,80,128
** ... 364 like lines cut
*MATERIAL, NAME=CFRP
*ELASTIC
7e+10,0.3
*DENSITY
1600
*SHELL SECTION, ELSET=ALL_SHELL, MATERIAL=CFRP
0.0025
*NSET, NSET=MOUNT
1,2
*BOUNDARY
MOUNT, 1, 6
*STEP
*NODE FILE, NSET=ALL
U
*EL FILE, ELSET=ALL_SHELL
S
*STATIC
*DLOAD
1,P,136.451996
2,P,136.451996
3,P,588.291992
4,P,588.291992
5,P,559.348999
6,P,559.348999
7,P,182.796997
8,P,182.796997
9,P,147.115997
10,P,147.115997
11,P,108.633003
12,P,108.633003
13,P,479.516998
14,P,479.516998
15,P,892.164001
16,P,892.164001
17,P,53.8818016
18,P,53.8818016
19,P,63.5096016
20,P,63.5096016
** ... 364 like lines cut
*NSET, NSET=ALL, GENERATE
1,0,1
*NODE PRINT, NSET=ALL
U
*EL PRINT, ELSET=ALL_SHELL
S
*END STEP
